<?xml version="1.0" encoding="UTF-8"?>

<configuration xmlns:xsi="http://www.w3.org/2001/XMLSchema-instance" xsi:noNamespaceSchemaLocation="http://sumo.dlr.de/xsd/sumoConfiguration.xsd">

    <input>
        <net-file value="M50network.net.xml"/>
		<additional-files value="vtypes_IDM.add.xml,M50_routes.rou.xml,M50_emitters.emi.xml,M50_detectors.poi.xml"/>
    </input>

    <output>
        <tripinfo-output value="../output/tripinfo_physical_entity.xml"/>
        <tripinfo-output.write-unfinished value="true"/>
        <statistic-output value="../output/statistic_physical_entity.xml"/>
        <fcd-output value="../output/fcd_physical_entity.xml"/>
    </output>

<!--
09:00 - 09:15
<time>
    <begin value="32400"/>
    <end value="33300"/>
19:00 - 19:15
<time>
    <begin value="68400"/>
    <end value="69300"/>
22:00 - 22:15
<time>
    <begin value="79200"/>
    <end value="80100"/>
-->

    <time>
        <begin value="79200"/>
        <end value="79500"/>
        <step-length value="0.01"/>
    </time>

	<processing>
		<emergencydecel.warning-threshold value="5"/>
		<collision.mingap-factor value="0"/>
	</processing>

    <ssm_device>
        <device.ssm.probability value="1"/>
        <device.ssm.deterministic value="true"/>
        <device.ssm.measures value="TTC PET"/>
        <device.ssm.thresholds value="1.5 2"/>
        <device.ssm.trajectories value="false"/>
        <device.ssm.range value="50"/>
        <device.ssm.extratime value="5"/>
        <device.ssm.file value="ssm.out.xml"/>
        <device.ssm.geo value="true"/>
    </ssm_device>

    <traci_server>
        <remote-port value="57790"/>
    </traci_server>

</configuration>