<?xml version="1.0" encoding="UTF-8"?>


<additional xmlns:xsi="http://www.w3.org/2001/XMLSchema-instance" xsi:noNamespaceSchemaLocation="http://sumo.dlr.de/xsd/additional_file.xsd">
    
	<inductionLoop id="NRA_000000001503_Northbound-1" lane="360361373.2643_0" pos="193.00" file="out.xml"/>
    <inductionLoop id="NRA_000000001503_Northbound-2" lane="360361373.2643_1" pos="193.00" file="out.xml"/>
    <inductionLoop id="NRA_000000001503_Northbound-3" lane="360361373.2643_2" pos="193.00" file="out.xml"/>
    <inductionLoop id="NRA_000000001503_Northbound-4" lane="360361373.2643_3" pos="193.00" file="out.xml"/>
   
    <inductionLoop id="NRA_000000001503_Southbound-4" lane="48290550_3" pos="550.00" file="out.xml"/>
    <inductionLoop id="NRA_000000001503_Southbound-3" lane="48290550_2" pos="550.00" file="out.xml"/>
    <inductionLoop id="NRA_000000001503_Southbound-2" lane="48290550_1" pos="550.00" file="out.xml"/>
    <inductionLoop id="NRA_000000001503_Southbound-1" lane="48290550_0" pos="550.00" file="out.xml"/>

	<inductionLoop id="NRA_000000001508_Southbound-1" lane="106130759_0" pos="0.00" file="out.xml"/>
    <inductionLoop id="NRA_000000001508_Southbound-2" lane="106130759_1" pos="0.00" file="out.xml"/>
    <inductionLoop id="NRA_000000001508_Southbound-3" lane="106130759_2" pos="0.00" file="out.xml"/>
    <inductionLoop id="NRA_000000001508_Southbound-4" lane="106130759_3" pos="0.00" file="out.xml"/>

    <inductionLoop id="NRA_000000001508_Northbound-4" lane="gneE12_3" pos="343.00" file="out.xml"/>
    <inductionLoop id="NRA_000000001508_Northbound-3" lane="gneE12_2" pos="343.00" file="out.xml"/>
    <inductionLoop id="NRA_000000001508_Northbound-2" lane="gneE12_1" pos="343.00" file="out.xml"/>
    <inductionLoop id="NRA_000000001508_Northbound-1" lane="gneE12_0" pos="343.00" file="out.xml"/>

    <inductionLoop id="NRA_000000020047_Westbound-Bus-Lane" lane="491989399#1-AddedOnRampEdge.925_0" pos="392.00" file="out.xml"/>
    <inductionLoop id="NRA_000000020047_Westbound-1" lane="491989399#1-AddedOnRampEdge.925_1" pos="392.00" file="out.xml"/>
    <inductionLoop id="NRA_000000020047_Westbound-2" lane="491989399#1-AddedOnRampEdge.925_2" pos="392.00" file="out.xml"/>
    <inductionLoop id="NRA_000000020047_Westbound-3" lane="491989399#1-AddedOnRampEdge.925_3" pos="392.00" file="out.xml"/>

    <inductionLoop id="NRA_000000020047_Eastbound-3" lane="48516117_3" pos="0.00" file="out.xml"/>
    <inductionLoop id="NRA_000000020047_Eastbound-2" lane="48516117_2" pos="0.00" file="out.xml"/>
    <inductionLoop id="NRA_000000020047_Eastbound-1" lane="48516117_1" pos="0.00" file="out.xml"/>
    <inductionLoop id="NRA_000000020047_Eastbound-Bus-Lane" lane="48516117_0" pos="0.00" file="out.xml"/>

    <inductionLoop id="NRA_000000001070_Eastbound-1" lane="293596618#1-AddedOffRampEdge_0" pos="0.00" file="out.xml"/>
    <inductionLoop id="NRA_000000001070_Eastbound-2" lane="293596618#1-AddedOffRampEdge_1" pos="0.00" file="out.xml"/>
    <inductionLoop id="NRA_000000001070_Eastbound-3" lane="293596618#1-AddedOffRampEdge_2" pos="0.00" file="out.xml"/>
    <inductionLoop id="NRA_000000001070_Eastbound-4" lane="293596618#1-AddedOffRampEdge_3" pos="0.00" file="out.xml"/>

    <inductionLoop id="NRA_000000001070_Westbound-4" lane="428960734_3" pos="474.00" file="out.xml"/>
    <inductionLoop id="NRA_000000001070_Westbound-3" lane="428960734_2" pos="474.00" file="out.xml"/>
    <inductionLoop id="NRA_000000001070_Westbound-2" lane="428960734_1" pos="474.00" file="out.xml"/>
    <inductionLoop id="NRA_000000001070_Westbound-1" lane="428960734_0" pos="474.00" file="out.xml"/>

    <inductionLoop id="NRA_000000001509_Southbound-1"  lane="345616204#1.655_0" pos="378.00" file="out.xml"/>
    <inductionLoop id="NRA_000000001509_Southbound-2"  lane="345616204#1.655_1" pos="378.00" file="out.xml"/>
    <inductionLoop id="NRA_000000001509_Southbound-3"  lane="345616204#1.655_2" pos="378.00" file="out.xml"/>
    <inductionLoop id="NRA_000000001509_Southbound-4"  lane="345616204#1.655_3" pos="378.00" file="out.xml"/>
    
    <inductionLoop id="NRA_000000001509_Northbound-off-slip-1"  lane="75259388-AddedOffRampEdge_0" pos="0.00" file="out.xml"/>
    <inductionLoop id="NRA_000000001509_Northbound-off-slip-2"  lane="75259388-AddedOffRampEdge_1" pos="0.00" file="out.xml"/>
    <inductionLoop id="NRA_000000001509_Northbound-1"  lane="75259388-AddedOffRampEdge_2" pos="0.00" file="out.xml"/>
    <inductionLoop id="NRA_000000001509_Northbound-2"  lane="75259388-AddedOffRampEdge_3" pos="0.00" file="out.xml"/>
    <inductionLoop id="NRA_000000001509_Northbound-3"  lane="75259388-AddedOffRampEdge_4" pos="0.00" file="out.xml"/>

    <inductionLoop id="N4-E3"  lane="621521116#0_2" pos="265.00" file="out.xml"/>
    <inductionLoop id="N4-E2"  lane="621521116#0_1" pos="265.00" file="out.xml"/>
    <inductionLoop id="N4-E1"  lane="621521116#0_0" pos="265.00" file="out.xml"/>

    <inductionLoop id="N4-W3"  lane="319144060_2" pos="4.00" file="out.xml"/>
    <inductionLoop id="N4-W2"  lane="319144060_1" pos="4.00" file="out.xml"/>
    <inductionLoop id="N4-W1"  lane="319144060_0" pos="4.00" file="out.xml"/>

    <inductionLoop id="N7-E3"  lane="615002705#1_2" pos="612.00" file="out.xml"/>
    <inductionLoop id="N7-E2"  lane="615002705#1_1" pos="612.00" file="out.xml"/>
    <inductionLoop id="N7-E1"  lane="615002705#1_0" pos="612.00" file="out.xml"/>
    
    <inductionLoop id="N7-W3"  lane="457424511#3_2" pos="4.00" file="out.xml"/>
    <inductionLoop id="N7-W2"  lane="457424511#3_1" pos="4.00" file="out.xml"/>
    <inductionLoop id="N7-W1"  lane="457424511#3_0" pos="4.00" file="out.xml"/>


    <vType id="CAT4" vClass="truck" speedDev="0.05" carFollowModel="IDM" minGap="1" tau="0.5" sigma="0.05" probability="0.1"/>
	<vType id="CAT2" vClass="truck" speedDev="0.05" carFollowModel="IDM" minGap="1.5" tau="0.8" sigma="0.05" lcStrategic="0.5" probability="0.1"/>
	<vType id="HDT" vClass="truck" lcStrategic="0.5" probability="0.8" />
	
	<vType id="CAV4" vClass="passenger" speedDev="0.05" carFollowModel="IDM" minGap="1" tau="0.5" sigma="0.05" probability="0.1"/>
	<vType id="CAV2" vClass="passenger" speedDev="0.05" carFollowModel="IDM" minGap="1.5" tau="0.8" sigma="0.05" lcStrategic="0.5" probability="0.1"/>
	<vType id="HDC" vClass="passenger" tau="1.2" lcStrategic="0.5" probability="0.8" />
	
	<vTypeDistribution id="PKW" vTypes="HDC CAV2 CAV4"/>
	<vTypeDistribution id="LKW" vTypes="HDT CAT2 CAT4"/>



</additional>